#RADIOSS STARTER
/BEGIN
test                                                        
      2019         0 
                  kg                   m                   s
                  kg                   m                   s
#include movi_x.inc
#include movi_y.inc
#include movi_z.inc
/NODE
         1       -1.250000e-01       -1.250000e-01        0.000000e+00
         2       -1.230000e-01       -1.250000e-01        0.000000e+00
         3       -1.210000e-01       -1.250000e-01        0.000000e+00
         4       -1.190000e-01       -1.250000e-01        0.000000e+00
         5       -1.170000e-01       -1.250000e-01        0.000000e+00
         6       -1.150000e-01       -1.250000e-01        0.000000e+00
         7       -1.130000e-01       -1.250000e-01        0.000000e+00
         8       -1.110000e-01       -1.250000e-01        0.000000e+00
         9       -1.090000e-01       -1.250000e-01        0.000000e+00
        10       -1.070000e-01       -1.250000e-01        0.000000e+00
        11       -1.050000e-01       -1.250000e-01        0.000000e+00
        12       -1.030000e-01       -1.250000e-01        0.000000e+00
        13       -1.010000e-01       -1.250000e-01        0.000000e+00
        14       -9.900000e-02       -1.250000e-01        0.000000e+00
        15       -9.700000e-02       -1.250000e-01        0.000000e+00
        16       -9.500000e-02       -1.250000e-01        0.000000e+00
        17       -9.300000e-02       -1.250000e-01        0.000000e+00
        18       -9.100000e-02       -1.250000e-01        0.000000e+00
        19       -8.900000e-02       -1.250000e-01        0.000000e+00
        20       -8.700000e-02       -1.250000e-01        0.000000e+00
# ... 16193 like lines cut
/SHELL/1
         1         1         2       128       127
         2         2         3       129       128
         3         3         4       130       129
         4         4         5       131       130
         5         5         6       132       131
         6         6         7       133       132
         7         7         8       134       133
         8         8         9       135       134
         9         9        10       136       135
        10        10        11       137       136
        11        11        12       138       137
        12        12        13       139       138
        13        13        14       140       139
        14        14        15       141       140
        15        15        16       142       141
        16        16        17       143       142
        17        17        18       144       143
        18        18        19       145       144
        19        19        20       146       145
        20        20        21       147       146
# ... 15605 like lines cut
/PART/1
PART_ID_1
#     pid     mid
         1         2
/GRNOD/PART/1
PART_1
         1
/SHELL/4
     15626     15877     15878     15889     15888
     15627     15878     15879     15890     15889
     15628     15879     15880     15891     15890
     15629     15880     15881     15892     15891
     15630     15881     15882     15893     15892
     15631     15882     15883     15894     15893
     15632     15883     15884     15895     15894
     15633     15884     15885     15896     15895
     15634     15885     15886     15897     15896
     15635     15886     15887     15898     15897
/PART/4
PART_ID_4
#     pid     mid
         3         2
/GRNOD/PART/4
PART_4
         4
/GRNOD/NODE/104
MOVE_4
     15899
/BCS/4
BoundSpcSet_1 
#  Tra rot   skew_ID  grnod_ID
   111 111         0       104
/RBODY/400
PART_4
#---1----|----2----|----3----|----4----|----5----|----6----|----7----|----8----|----9----|---10----|
# node_ID    sens_ID	  Skew_ID	   Ispher	               Mass	  grnd_ID	    Ikrem	     ICoG	  surf_ID
     15899                                                           4



/SURF/PART/1000004
PART_RIG_SURF_4
         4
/SHELL/5
     15636     15901     15900     15911     15912
     15637     15902     15901     15912     15913
     15638     15903     15902     15913     15914
     15639     15904     15903     15914     15915
     15640     15905     15904     15915     15916
     15641     15906     15905     15916     15917
     15642     15907     15906     15917     15918
     15643     15908     15907     15918     15919
     15644     15909     15908     15919     15920
     15645     15910     15909     15920     15921
/PART/5
PART_ID_5
#     pid     mid
         3         2
/GRNOD/PART/5
PART_5
         5
/GRNOD/NODE/105
MOVE_5
     15922
/BCS/5
BoundSpcSet_1 
#  Tra rot   skew_ID  grnod_ID
   111 111         0       105
/RBODY/500
PART_5
#---1----|----2----|----3----|----4----|----5----|----6----|----7----|----8----|----9----|---10----|
# node_ID    sens_ID	  Skew_ID	   Ispher	               Mass	  grnd_ID	    Ikrem	     ICoG	  surf_ID
     15922                                                           5



/SURF/PART/1000005
PART_RIG_SURF_5
         5
/SHELL/6
     15646     15923     15924     15935     15934
     15647     15924     15925     15936     15935
     15648     15925     15926     15937     15936
     15649     15926     15927     15938     15937
     15650     15927     15928     15939     15938
     15651     15928     15929     15940     15939
     15652     15929     15930     15941     15940
     15653     15930     15931     15942     15941
     15654     15931     15932     15943     15942
     15655     15932     15933     15944     15943
/PART/6
PART_ID_6
#     pid     mid
         3         2
/GRNOD/PART/6
PART_6
         6
/GRNOD/NODE/106
MOVE_6
     15945
/BCS/6
BoundSpcSet_1 
#  Tra rot   skew_ID  grnod_ID
   111 111         0       106
/RBODY/600
PART_6
#---1----|----2----|----3----|----4----|----5----|----6----|----7----|----8----|----9----|---10----|
# node_ID    sens_ID	  Skew_ID	   Ispher	               Mass	  grnd_ID	    Ikrem	     ICoG	  surf_ID
     15945                                                           6



/SURF/PART/1000006
PART_RIG_SURF_6
         6
/SHELL/7
     15656     15947     15946     15957     15958
     15657     15948     15947     15958     15959
     15658     15949     15948     15959     15960
     15659     15950     15949     15960     15961
     15660     15951     15950     15961     15962
     15661     15952     15951     15962     15963
     15662     15953     15952     15963     15964
     15663     15954     15953     15964     15965
     15664     15955     15954     15965     15966
     15665     15956     15955     15966     15967
/PART/7
PART_ID_7
#     pid     mid
         3         2
/GRNOD/PART/7
PART_7
         7
/GRNOD/NODE/107
MOVE_7
     15968
/BCS/7
BoundSpcSet_1 
#  Tra rot   skew_ID  grnod_ID
   111 111         0       107
/RBODY/700
PART_7
#---1----|----2----|----3----|----4----|----5----|----6----|----7----|----8----|----9----|---10----|
# node_ID    sens_ID	  Skew_ID	   Ispher	               Mass	  grnd_ID	    Ikrem	     ICoG	  surf_ID
     15968                                                           7



/SURF/PART/1000007
PART_RIG_SURF_7
         7
/SHELL/8
     15666     15969     15970     15972     15971
     15667     15971     15972     15974     15973
     15668     15973     15974     15976     15975
     15669     15975     15976     15978     15977
     15670     15977     15978     15980     15979
     15671     15979     15980     15982     15981
     15672     15981     15982     15984     15983
     15673     15983     15984     15986     15985
     15674     15985     15986     15988     15987
     15675     15987     15988     15990     15989
/PART/8
PART_ID_8
#     pid     mid
         3         2
/GRNOD/PART/8
PART_8
         8
/GRNOD/NODE/108
MOVE_8
     15991
/BCS/8
BoundSpcSet_1 
#  Tra rot   skew_ID  grnod_ID
   111 111         0       108
/RBODY/800
PART_8
#---1----|----2----|----3----|----4----|----5----|----6----|----7----|----8----|----9----|---10----|
# node_ID    sens_ID	  Skew_ID	   Ispher	               Mass	  grnd_ID	    Ikrem	     ICoG	  surf_ID
     15991                                                           8



/SURF/PART/1000008
PART_RIG_SURF_8
         8
/SHELL/9
     15676     15993     15992     15994     15995
     15677     15995     15994     15996     15997
     15678     15997     15996     15998     15999
     15679     15999     15998     16000     16001
     15680     16001     16000     16002     16003
     15681     16003     16002     16004     16005
     15682     16005     16004     16006     16007
     15683     16007     16006     16008     16009
     15684     16009     16008     16010     16011
     15685     16011     16010     16012     16013
/PART/9
PART_ID_9
#     pid     mid
         3         2
/GRNOD/PART/9
PART_9
         9
/GRNOD/NODE/109
MOVE_9
     16014
/BCS/9
BoundSpcSet_1 
#  Tra rot   skew_ID  grnod_ID
   111 111         0       109
/RBODY/900
PART_9
#---1----|----2----|----3----|----4----|----5----|----6----|----7----|----8----|----9----|---10----|
# node_ID    sens_ID	  Skew_ID	   Ispher	               Mass	  grnd_ID	    Ikrem	     ICoG	  surf_ID
     16014                                                           9



/SURF/PART/1000009
PART_RIG_SURF_9
         9
/SHELL/10
     15686     16015     16016     16018     16017
     15687     16017     16018     16020     16019
     15688     16019     16020     16022     16021
     15689     16021     16022     16024     16023
     15690     16023     16024     16026     16025
     15691     16025     16026     16028     16027
     15692     16027     16028     16030     16029
     15693     16029     16030     16032     16031
     15694     16031     16032     16034     16033
     15695     16033     16034     16036     16035
/PART/10
PART_ID_10
#     pid     mid
         3         2
/GRNOD/PART/10
PART_10
        10
/GRNOD/NODE/110
MOVE_10
     16037
/BCS/10
BoundSpcSet_1 
#  Tra rot   skew_ID  grnod_ID
   111 111         0       110
/RBODY/1000
PART_10
#---1----|----2----|----3----|----4----|----5----|----6----|----7----|----8----|----9----|---10----|
# node_ID    sens_ID	  Skew_ID	   Ispher	               Mass	  grnd_ID	    Ikrem	     ICoG	  surf_ID
     16037                                                          10



/SURF/PART/1000010
PART_RIG_SURF_10
        10
/SHELL/11
     15696     16039     16038     16040     16041
     15697     16041     16040     16042     16043
     15698     16043     16042     16044     16045
     15699     16045     16044     16046     16047
     15700     16047     16046     16048     16049
     15701     16049     16048     16050     16051
     15702     16051     16050     16052     16053
     15703     16053     16052     16054     16055
     15704     16055     16054     16056     16057
     15705     16057     16056     16058     16059
/PART/11
PART_ID_11
#     pid     mid
         3         2
/GRNOD/PART/11
PART_11
        11
/GRNOD/NODE/111
MOVE_11
     16060
/BCS/11
BoundSpcSet_1 
#  Tra rot   skew_ID  grnod_ID
   111 111         0       111
/RBODY/1100
PART_11
#---1----|----2----|----3----|----4----|----5----|----6----|----7----|----8----|----9----|---10----|
# node_ID    sens_ID	  Skew_ID	   Ispher	               Mass	  grnd_ID	    Ikrem	     ICoG	  surf_ID
     16060                                                          11



/SURF/PART/1000011
PART_RIG_SURF_11
        11
/SHELL/2
     15706     16061     16062     16068     16067
     15707     16062     16063     16069     16068
     15708     16063     16064     16070     16069
     15709     16064     16065     16071     16070
     15710     16065     16066     16072     16071
     15711     16067     16068     16074     16073
     15712     16068     16069     16075     16074
     15713     16069     16070     16076     16075
     15714     16070     16071     16077     16076
     15715     16071     16072     16078     16077
     15716     16073     16074     16080     16079
     15717     16074     16075     16081     16080
     15718     16075     16076     16082     16081
     15719     16076     16077     16083     16082
     15720     16077     16078     16084     16083
     15721     16079     16080     16086     16085
     15722     16080     16081     16087     16086
     15723     16081     16082     16088     16087
     15724     16082     16083     16089     16088
     15725     16083     16084     16090     16089
# ... 130 like lines cut
/PART/2
PART_ID_2
#     pid     mid
         2         2
/GRNOD/PART/2
PART_2
         2
/GRNOD/NODE/102
MOVE_2
     16213
/BCS/2
BoundSpcSet_1 
#  Tra rot   skew_ID  grnod_ID
   000 111         0       102
/RBODY/200
PART_2
#---1----|----2----|----3----|----4----|----5----|----6----|----7----|----8----|----9----|---10----|
# node_ID    sens_ID	  Skew_ID	   Ispher	               Mass	  grnd_ID	    Ikrem	     ICoG	  surf_ID
     16213                                                           2



/SURF/PART/1000002
PART_RIG_SURF_2
         2
/MAT/PLAS_JOHNS/2
MAT_PIECEWISE_LINEAR_PLASTICITY:2 TITLE:mat_probe   
              7850.0
#                  E                  Nu     Iflag  
      200000000000.0                0.33
#                  a                   b                   n             EPS_max            SIG_max0
         359000000.0         327000000.0               0.4541.00000000000000E+301.00000000000000E+30
#                  c           EPS_DOT_0       ICC   Fsmooth               F_cut               Chard
              0.0786                0.04         1         11.00000000000000E+30
#                  m              T_melt              rhoC_p                 T_r
               0.919               1500.              3.29e6                   0
#/HEAT/MAT/mat_ID/unit_ID
/HEAT/MAT/2
#                 T0             RHO0_CP                  AS                  BS     IFORM
                20.0              3.29e6                15.0                  0.0        1
 
##--------------------------------------------------------------------------------------------------
## Shell Property Set (pid 1)
##--------------------------------------------------------------------------------------------------
/PROP/SHELL/1
SECTION_SHELL:1 TITLE:probe_section  
#Ishell	Ismstr	Ish3n	Idril	 	 	P_thickfail
         4         2                         
#hm	hf	hr	dm	dn

#---1----|----2----|----3----|----4----|----5----|----6----|----7----|----8----|----9----|---10----|
#N	       Istrain	 Thick	             Ashear	 	           Ithick	Iplas    
         2                  7.000000e-04                                       1         1
##--------------------------------------------------------------------------------------------------
## Shell Property Set (pid 1)
##--------------------------------------------------------------------------------------------------
/PROP/SHELL/2
SECTION_SHELL:1 TITLE:probe_section  
#Ishell	Ismstr	Ish3n	Idril	 	 	P_thickfail
         4         2                         
#hm	hf	hr	dm	dn

#---1----|----2----|----3----|----4----|----5----|----6----|----7----|----8----|----9----|---10----|
#N	       Istrain	 Thick	             Ashear	 	           Ithick	Iplas    
         2                  1.000000e-04                                       1         1
##--------------------------------------------------------------------------------------------------
## Shell Property Set (pid 1)
##--------------------------------------------------------------------------------------------------
/PROP/SHELL/3
SECTION_SHELL:1 TITLE:probe_section  
#Ishell	Ismstr	Ish3n	Idril	 	 	P_thickfail
         4         2                         
#hm	hf	hr	dm	dn

#---1----|----2----|----3----|----4----|----5----|----6----|----7----|----8----|----9----|---10----|
#N	       Istrain	 Thick	             Ashear	 	           Ithick	Iplas    
         2                  1.000000e-03                                       1         1
#-  9. INTERFACES:
#---1----|----2----|----3----|----4----|----5----|----6----|----7----|----8----|----9----|---10----|
/INTER/TYPE7/0
INTERFACE 0
#  Slav_id   Mast_id      Istf      Ithe      Igap                Ibag      Idel     Icurv      Iadm
         1   1000002         0         0         0                   0         0         0         0
#          Fscalegap             GAP_MAX             Fpenmax
                   0                   0                   0
#              Stmin               Stmax          %mesh_size               dtmin  Irem_gap
                   0                   0                   0                   0         0
#              Stfac                Fric              Gapmin              Tstart               Tstop
#                  1                  0.                  .0                   0                   0
                   1                 .0           0.0000                       0                   0
#      IBC                        Inacti                VisS                VisF              Bumult
       000                             0                   1                   1                   0
#    Ifric    Ifiltr               Xfreq     Iform   sens_ID
         0         0                   0         0         0
#---1----|----2----|----3----|----4----|----5----|----6----|----7----|----8----|----9----|---10----|
/INTER/TYPE7/1
INTERFACE 1
#  Slav_id   Mast_id      Istf      Ithe      Igap                Ibag      Idel     Icurv      Iadm
         1   1000004         0         0         0                   0         0         0         0
#          Fscalegap             GAP_MAX             Fpenmax
                   0                   0                   0
#              Stmin               Stmax          %mesh_size               dtmin  Irem_gap
                   0                   0                   0                   0         0
#              Stfac                Fric              Gapmin              Tstart               Tstop
#                  1                 1.0                  .0                   0                   0
                   1                 .0           0.0000                       0                   0
#      IBC                        Inacti                VisS                VisF              Bumult
       000                             0                   1                   1                   0
#    Ifric    Ifiltr               Xfreq     Iform   sens_ID
         0         0                   0         0         0
#---1----|----2----|----3----|----4----|----5----|----6----|----7----|----8----|----9----|---10----|
/INTER/TYPE7/2
INTERFACE 2
#  Slav_id   Mast_id      Istf      Ithe      Igap                Ibag      Idel     Icurv      Iadm
         1   1000005         0         0         0                   0         0         0         0
#          Fscalegap             GAP_MAX             Fpenmax
                   0                   0                   0
#              Stmin               Stmax          %mesh_size               dtmin  Irem_gap
                   0                   0                   0                   0         0
#              Stfac                Fric              Gapmin              Tstart               Tstop
#                  1                 1.0                  .0                   0                   0
                   1                 .0           0.0000                       0                   0
#      IBC                        Inacti                VisS                VisF              Bumult
       000                             0                   1                   1                   0
#    Ifric    Ifiltr               Xfreq     Iform   sens_ID
         0         0                   0         0         0
#---1----|----2----|----3----|----4----|----5----|----6----|----7----|----8----|----9----|---10----|
/INTER/TYPE7/3
INTERFACE 3
#  Slav_id   Mast_id      Istf      Ithe      Igap                Ibag      Idel     Icurv      Iadm
         1   1000006         0         0         0                   0         0         0         0
#          Fscalegap             GAP_MAX             Fpenmax
                   0                   0                   0
#              Stmin               Stmax          %mesh_size               dtmin  Irem_gap
                   0                   0                   0                   0         0
#              Stfac                Fric              Gapmin              Tstart               Tstop
#                  1                 1.0                  .0                   0                   0
                   1                 .0           0.0000                       0                   0
#      IBC                        Inacti                VisS                VisF              Bumult
       000                             0                   1                   1                   0
#    Ifric    Ifiltr               Xfreq     Iform   sens_ID
         0         0                   0         0         0
#---1----|----2----|----3----|----4----|----5----|----6----|----7----|----8----|----9----|---10----|
/INTER/TYPE7/4
INTERFACE 4
#  Slav_id   Mast_id      Istf      Ithe      Igap                Ibag      Idel     Icurv      Iadm
         1   1000007         0         0         0                   0         0         0         0
#          Fscalegap             GAP_MAX             Fpenmax
                   0                   0                   0
#              Stmin               Stmax          %mesh_size               dtmin  Irem_gap
                   0                   0                   0                   0         0
#              Stfac                Fric              Gapmin              Tstart               Tstop
#                  1                 1.0                  .0                   0                   0
                   1                 .0           0.0000                       0                   0
#      IBC                        Inacti                VisS                VisF              Bumult
       000                             0                   1                   1                   0
#    Ifric    Ifiltr               Xfreq     Iform   sens_ID
         0         0                   0         0         0
#---1----|----2----|----3----|----4----|----5----|----6----|----7----|----8----|----9----|---10----|
/INTER/TYPE7/5
INTERFACE 5
#  Slav_id   Mast_id      Istf      Ithe      Igap                Ibag      Idel     Icurv      Iadm
         1   1000008         0         0         0                   0         0         0         0
#          Fscalegap             GAP_MAX             Fpenmax
                   0                   0                   0
#              Stmin               Stmax          %mesh_size               dtmin  Irem_gap
                   0                   0                   0                   0         0
#              Stfac                Fric              Gapmin              Tstart               Tstop
#                  1                 1.0                  .0                   0                   0
                   1                 .0           0.0000                       0                   0
#      IBC                        Inacti                VisS                VisF              Bumult
       000                             0                   1                   1                   0
#    Ifric    Ifiltr               Xfreq     Iform   sens_ID
         0         0                   0         0         0
#---1----|----2----|----3----|----4----|----5----|----6----|----7----|----8----|----9----|---10----|
/INTER/TYPE7/6
INTERFACE 6
#  Slav_id   Mast_id      Istf      Ithe      Igap                Ibag      Idel     Icurv      Iadm
         1   1000009         0         0         0                   0         0         0         0
#          Fscalegap             GAP_MAX             Fpenmax
                   0                   0                   0
#              Stmin               Stmax          %mesh_size               dtmin  Irem_gap
                   0                   0                   0                   0         0
#              Stfac                Fric              Gapmin              Tstart               Tstop
#                  1                 1.0                  .0                   0                   0
                   1                 .0           0.0000                       0                   0
#      IBC                        Inacti                VisS                VisF              Bumult
       000                             0                   1                   1                   0
#    Ifric    Ifiltr               Xfreq     Iform   sens_ID
         0         0                   0         0         0
#---1----|----2----|----3----|----4----|----5----|----6----|----7----|----8----|----9----|---10----|
/INTER/TYPE7/7
INTERFACE 7
#  Slav_id   Mast_id      Istf      Ithe      Igap                Ibag      Idel     Icurv      Iadm
         1   1000010         0         0         0                   0         0         0         0
#          Fscalegap             GAP_MAX             Fpenmax
                   0                   0                   0
#              Stmin               Stmax          %mesh_size               dtmin  Irem_gap
                   0                   0                   0                   0         0
#              Stfac                Fric              Gapmin              Tstart               Tstop
#                  1                 1.0                  .0                   0                   0
                   1                 .0           0.0000                       0                   0
#      IBC                        Inacti                VisS                VisF              Bumult
       000                             0                   1                   1                   0
#    Ifric    Ifiltr               Xfreq     Iform   sens_ID
         0         0                   0         0         0
#---1----|----2----|----3----|----4----|----5----|----6----|----7----|----8----|----9----|---10----|
/INTER/TYPE7/8
INTERFACE 8
#  Slav_id   Mast_id      Istf      Ithe      Igap                Ibag      Idel     Icurv      Iadm
         1   1000011         0         0         0                   0         0         0         0
#          Fscalegap             GAP_MAX             Fpenmax
                   0                   0                   0
#              Stmin               Stmax          %mesh_size               dtmin  Irem_gap
                   0                   0                   0                   0         0
#              Stfac                Fric              Gapmin              Tstart               Tstop
#                  1                 1.0                  .0                   0                   0
                   1                 .0           0.0000                       0                   0
#      IBC                        Inacti                VisS                VisF              Bumult
       000                             0                   1                   1                   0
#    Ifric    Ifiltr               Xfreq     Iform   sens_ID
         0         0                   0         0         0
/IMPDISP/28
NUM3HS1D00_fixvel_1
#funct_IDT       Dir   skew_ID sensor_ID  grnod_ID  frame_ID     Icoor
   1000001         X         0         0       102         0         0
#           Ascale_x            Fscale_Y              Tstart               Tstop
                   1                   1                   0               11000  
/IMPDISP/29
NUM3HS1D00_fixvel_1
#funct_IDT       Dir   skew_ID sensor_ID  grnod_ID  frame_ID     Icoor
   1000002         Y         0         0       102         0         0
#           Ascale_x            Fscale_Y              Tstart               Tstop
                   1                   1                   0               11000 
/IMPDISP/30
NUM3HS1D00_fixvel_1
#funct_IDT       Dir   skew_ID sensor_ID  grnod_ID  frame_ID     Icoor
   1000003         Z         0         0       102         0         0
#           Ascale_x            Fscale_Y              Tstart               Tstop
                   1                   1                   0               11000 
/TH/RBODY/1
TH_NAME1 
FX        FY        FZ        
200
/END
