$# LS-DYNA Keyword file created by LS-PrePost(R) 2024/R1(4.11)-30Jan2024
$# Created on Mar-20-2024 (13:29:55)
*KEYWORD
*ELEMENT_SOLID
$#   eid     pid      n1      n2      n3      n4      n5      n6      n7      n8
    6747 3000001     759     714     738     736    6215    5810    6026    6008
    6748 3000001    6215    5810    6026    6008    6216    5811    6027    6009
    6749 3000001    6216    5811    6027    6009    6217    5812    6028    6010
    6750 3000001    6217    5812    6028    6010    6218    5813    6029    6011
    6751 3000001    6218    5813    6029    6011    6219    5814    6030    6012
    6752 3000001    6219    5814    6030    6012    6220    5815    6031    6013
    6753 3000001    6220    5815    6031    6013    6221    5816    6032    6014
    6754 3000001    6221    5816    6032    6014    6222    5817    6033    6015
    6755 3000001    6222    5817    6033    6015    6223    5818    6034    6016
    6756 3000001    6223    5818    6034    6016    2368    2323    2347    2345
    6757 3000001     750     713     721     755    6134    5801    5873    6179
    6758 3000001    6134    5801    5873    6179    6135    5802    5874    6180
    6759 3000001    6135    5802    5874    6180    6136    5803    5875    6181
    6760 3000001    6136    5803    5875    6181    6137    5804    5876    6182
    6761 3000001    6137    5804    5876    6182    6138    5805    5877    6183
    6762 3000001    6138    5805    5877    6183    6139    5806    5878    6184
    6763 3000001    6139    5806    5878    6184    6140    5807    5879    6185
    6764 3000001    6140    5807    5879    6185    6141    5808    5880    6186
    6765 3000001    6141    5808    5880    6186    6142    5809    5881    6187
    6766 3000001    6142    5809    5881    6187    2359    2322    2330    2364
$ ... 15400 like lines cut
*NODE
$#   nid               x               y               z      tc      rc
       2   -2.121320e-04       0.0080879             0.0       0       0
       3    2.121320e-04       0.0080879             0.0       0       0
       4      -0.0014235            0.01             0.0       0       0
       5       0.0014235            0.01             0.0       0       0
       6      -0.0014235           0.007             0.0       0       0
       7       0.0014235           0.007             0.0       0       0
       8      -0.0014235             0.0             0.0       0       0
       9       0.0014235             0.0             0.0       0       0
      10   -2.121320e-04           0.007             0.0       0       0
      11    2.121320e-04           0.007             0.0       0       0
      12   -2.121320e-04             0.0             0.0       0       0
      13    2.121320e-04             0.0             0.0       0       0
      14          -0.025            0.01             0.0       0       0
      15           0.025            0.01             0.0       0       0
      16          -0.025             0.0             0.0       0       0
      17           0.025             0.0             0.0       0       0
      18      -0.0014235            0.01            0.01       0       0
      19      -0.0014235           0.007            0.01       0       0
      20   -2.121320e-04           0.007            0.01       0       0
      21   -2.121320e-04       0.0080879            0.01       0       0
$ ... 17811 like lines cut
*DEFINE_CURVE
$#    lcid      sidr       sfa       sfo      offa      offo    dattyp     lcint
         1         0       1.0       1.0       0.0       0.0         0         0
$#                a1                  o1
                 0.0                 0.0
               0.001                 1.0
*BOUNDARY_PRESCRIBED_MOTION_SET
$#    nsid       dof       vad      lcid        sf       vid     death     birth
         2         2         0         1      10.0         01.00000E28       0.0
*BOUNDARY_SPC_SET
$#    nsid       cid      dofx      dofy      dofz     dofrx     dofry     dofrz
         1         0         0         1         1         0         0         0
*SET_NODE_LIST
$#     sid       da1       da2       da3       da4    solver       its         -
         1       0.0       0.0       0.0       0.0MECH               1          
$#    nid1      nid2      nid3      nid4      nid5      nid6      nid7      nid8
       159       591      3653      3654      3655      3656      3657      3658
      3659      3660      3661       160       590      3662      3663      3664
      3665      3666      3667      3668      3669      3670       227       228
       658       659      5125      5126      5127      5128      5129      5130
      5131      5132      5133      5134      5135      5136      5137      5138
      5139      5140      5141      5142         0         0         0         0
*BOUNDARY_SPC_SET
$#    nsid       cid      dofx      dofy      dofz     dofrx     dofry     dofrz
         3         0         1         1         1         0         0         0
*SET_NODE_LIST_TITLE
NODESET(SPC) 3
$#     sid       da1       da2       da3       da4    solver       its         -
         3       0.0       0.0       0.0       0.0                   1          
$#    nid1      nid2      nid3      nid4      nid5      nid6      nid7      nid8
       590      7824      7825      8924     10503     10504     10510     12692
     11225         0         0         0         0         0         0         0
*PART
$#                                                                         title
auto created
$#     pid     secid       mid     eosid      hgid      grav    adpopt      tmid
   3000001         1         1         0         0         0         0         0
*SECTION_SOLID
$#   secid    elform       aet    unused    unused    unused    cohoff   gaskeit
         1         1         0                                     0.0       0.0
*MAT_JOHNSON_COOK
$#     mid        ro         g         e        pr       dtf        vp    rateop
         1    7850.07.69200E102.00000E11       0.3       0.0       0.0       0.0
$#       a         b         n         c         m        tm        tr      epso
4.990000E83.820000E8      0.45      0.01       0.0   10000.0       0.0       1.0
$#      cp        pc     spall        it        d1        d2        d3        d4
       0.0       0.0       2.0       0.0      0.11      0.08      -1.5       0.0
$#      d5c2/p/xnp/d      erod     efmin    numint         k      eps1
       0.0       0.0       0.01.00000E-6       1.0       0.0       0.0
*PART
$#                                                                         title
auto created
$#     pid     secid       mid     eosid      hgid      grav    adpopt      tmid
   3000002         1         1         0         0         0         0         0
*PART
$#                                                                         title
auto created
$#     pid     secid       mid     eosid      hgid      grav    adpopt      tmid
   3000003         1         1         0         0         0         0         0
*PART
$#                                                                         title
auto created
$#     pid     secid       mid     eosid      hgid      grav    adpopt      tmid
   3000004         1         1         0         0         0         0         0
*PART
$#                                                                         title
auto created
$#     pid     secid       mid     eosid      hgid      grav    adpopt      tmid
   3000005         1         1         0         0         0         0         0
*PART
$#                                                                         title
auto created
$#     pid     secid       mid     eosid      hgid      grav    adpopt      tmid
   3000006         1         1         0         0         0         0         0
*PART
$#                                                                         title
auto created
$#     pid     secid       mid     eosid      hgid      grav    adpopt      tmid
   3000007         1         1         0         0         0         0         0
*PART
$#                                                                         title
auto created
$#     pid     secid       mid     eosid      hgid      grav    adpopt      tmid
   3000008         1         1         0         0         0         0         0
*SET_NODE_LIST
$#     sid       da1       da2       da3       da4    solver       its         -
         2       0.0       0.0       0.0       0.0MECH               1          
$#    nid1      nid2      nid3      nid4      nid5      nid6      nid7      nid8
        12        13        28        29       471       472       473       474
       475       476       477       478       479       507       508       509
       510       511       512       513       514       515         0         0
*END
