#RADIOSS STARTER
# Copyright (C) 2022 Altair Engineering Inc. ("Holder")
# Model is licensed by Holder under CC BY-NC 4.0
# (https://creativecommons.org/licenses/by-nc/4.0/legalcode).
#---1----|----2----|----3----|----4----|----5----|----6----|----7----|----8----|----9----|---10----|
/BEGIN
DBEND_44                                                                        
       140         0
                   g                  mm                  ms
                   g                  mm                  ms
#---1----|----2----|----3----|----4----|----5----|----6----|----7----|----8----|----9----|---10----|
#-  1. CONTROL CARDS:
#---1----|----2----|----3----|----4----|----5----|----6----|----7----|----8----|----9----|---10----|
/TITLE
2D BEND HS F=4900x4
#---1----|----2----|----3----|----4----|----5----|----6----|----7----|----8----|----9----|---10----|
/ANALY
#    N2D3D             IPARITH      ISUB
         0                   0         0
#---1----|----2----|----3----|----4----|----5----|----6----|----7----|----8----|----9----|---10----|
/DEF_SHELL
#   ISHELL    ISMSTR    ITHICK     IPLAS   ISTRAIN                        I_SH3N     IDRIL
         0         0         0         0         0                             0         0
#---1----|----2----|----3----|----4----|----5----|----6----|----7----|----8----|----9----|---10----|
/DEF_SOLID
#  I_SOLID    ISMSTR             ISTRAIN                                  IFRAME
         0         0                   0                                       0
#---1----|----2----|----3----|----4----|----5----|----6----|----7----|----8----|----9----|---10----|
/IOFLAG
#     IPRI               IGTYP     IOUTP    IOUTYY   IROOTYY     IDROT
         0                   0         0         0         0         0
#---1----|----2----|----3----|----4----|----5----|----6----|----7----|----8----|----9----|---10----|
/SPMD
#   DOMDEC     Nproc              Dkword             Nthread
         0         0                   0                   1
#---1----|----2----|----3----|----4----|----5----|----6----|----7----|----8----|----9----|---10----|
#-  2. MATERIALS:
#---1----|----2----|----3----|----4----|----5----|----6----|----7----|----8----|----9----|---10----|
/MAT/HILL_TAB/1
Matflan
#              RHO_I
                  80                  80
#                  E                  NU
              206000                  .3
#FUNCT_IDE                          EINF                  CE
         0                             0                   0
#                r00                 r45                 r90              C_hard
                1.73                1.34                2.24                   0
#           EPSP_max              EPS_t1               EPS_m
                   0                   0                   0
# func_IDi                      Fscale_i           EPS_dot_i
         5                             0                   0                                        
#---1----|----2----|----3----|----4----|----5----|----6----|----7----|----8----|----9----|---10----|
/MAT/ELAST/2
NASTRAN MID _        2    Die material
#              RHO_I
                  80                  80
#                  E                  nu
              206000          .300000012
#---1----|----2----|----3----|----4----|----5----|----6----|----7----|----8----|----9----|---10----|
/MAT/ELAST/3
NASTRAN MID _        3    Blank holder material
#              RHO_I
                  80                  80
#                  E                  nu
              206000          .300000012
#---1----|----2----|----3----|----4----|----5----|----6----|----7----|----8----|----9----|---10----|
/MAT/ELAST/4
NASTRAN MID _        4    Punch  material
#              RHO_I
                  80                  80
#                  E                  nu
              206000          .300000012
#---1----|----2----|----3----|----4----|----5----|----6----|----7----|----8----|----9----|---10----|
#-  3. NODES:
#---1----|----2----|----3----|----4----|----5----|----6----|----7----|----8----|----9----|---10----|
/NODE
         1                  26                  -5         -80.3700027
         2                  26                  -5         -72.8700027
         3                  26                  -5         -65.3700027
         4                  26                  -5         -57.8699989
         5                  26                  -5         -50.3699989
         6                  26                  -5         -42.8699989
         7                  26                  -5         -35.3699989
         8                  26                  -5         -27.8700008
         9                  26                  -5         -20.3700008
        10                  26                  -5         -12.8699999
        11                  26                  -5         -5.37001991
        12                  26                   4         -80.3700027
        13                  26                   4         -72.8700027
        14                  26                   4         -65.3700027
        15                  26                   4         -57.8699989
        16                  26                   4         -50.3699989
        17                  26                   4         -42.8699989
        18                  26                   4         -35.3699989
        19                  26                   4         -27.8700008
        20                  26                   4         -20.3700008
# ... 1526 like lines cut
#---1----|----2----|----3----|----4----|----5----|----6----|----7----|----8----|----9----|---10----|
#-  4. BOUNDARY CONDITIONS:
#---1----|----2----|----3----|----4----|----5----|----6----|----7----|----8----|----9----|---10----|
/BCS/1
SYM_X_100_011
#  Tra rot   skew_ID  grnod_ID
   100 011         0         1
/GRNOD/BOX/1
NUM3HS1D00_bcs1_100_011
         1
/BOX/RECTA/1
BOX
#       N1        N2     ISKEW                                                                 ITYPE
         0         0         0                                                                     0
#                XP1                 YP1                 ZP1
                -.01                -.01                -.01
#                XP2                 YP2                 ZP2
                 .01               17.49                 .01
#---1----|----2----|----3----|----4----|----5----|----6----|----7----|----8----|----9----|---10----|
/BCS/2
TOOL_110_111
#  Tra rot   skew_ID  grnod_ID
   110 111         0         2
/GRNOD/GRNOD/2
TOOL
        20        21
/GRNOD/GRNOD/20
PUNCH_HOLDER
         5        12
/GRNOD/NODE/5
BLANF_HOLDER
      2550
/GRNOD/NODE/12
PUNCH
      2549
/GRNOD/BOX/21
SYM_XY
         2
/BOX/RECTA/2
BOX
#       N1        N2     ISKEW                                                                 ITYPE
         0         0         0                                                                     0
#                XP1                 YP1                 ZP1
                -.01               17.49                -.01
#                XP2                 YP2                 ZP2
                 .01               17.51                 .01
#---1----|----2----|----3----|----4----|----5----|----6----|----7----|----8----|----9----|---10----|
/BCS/3
FIX_matrice
#  Tra rot   skew_ID  grnod_ID
   110 111         0         3
/GRNOD/NODE/3
FIX_DIE
      2551
#---1----|----2----|----3----|----4----|----5----|----6----|----7----|----8----|----9----|---10----|
/BCS/4
SYM_Y_010_101
#  Tra rot   skew_ID  grnod_ID
   010 101         0         4
/GRNOD/BOX/4
NUM3HS1D00_bcs1_010_101
         3
/BOX/RECTA/3
BOX
#       N1        N2     ISKEW                                                                 ITYPE
         0         0         0                                                                     0
#                XP1                 YP1                 ZP1
                 .01               17.49                -.01
#                XP2                 YP2                 ZP2
              175.01               17.51                 .01
#---1----|----2----|----3----|----4----|----5----|----6----|----7----|----8----|----9----|---10----|
#-  5. PARTS:
#---1----|----2----|----3----|----4----|----5----|----6----|----7----|----8----|----9----|---10----|
/PART/1
BLANK
         1         1         0
#---1----|----2----|----3----|----4----|----5----|----6----|----7----|----8----|----9----|---10----|
# SHELL elements of /PART/1/BLANK:
#---1----|----2----|----3----|----4----|----5----|----6----|----7----|----8----|----9----|---10----|
/SHELL/1
       341       427       428       489       488                                                 0
       342       428       429       490       489                                                 0
       343       429       430       491       490                                                 0
       344       430       431       492       491                                                 0
       345       431       432       493       492                                                 0
       346       432       433       494       493                                                 0
       347       433       434       495       494                                                 0
       348       434       435       496       495                                                 0
       349       435       436       497       496                                                 0
       350       436       437       498       497                                                 0
       351       437       438       499       498                                                 0
       352       438       439       500       499                                                 0
       353       439       440       501       500                                                 0
       354       440       441       502       501                                                 0
       355       441       442       503       502                                                 0
       356       442       443       504       503                                                 0
       357       443       444       505       504                                                 0
       358       444       445       506       505                                                 0
       359       445       446       507       506                                                 0
       360       446       447       508       507                                                 0
# ... 980 like lines cut
#---1----|----2----|----3----|----4----|----5----|----6----|----7----|----8----|----9----|---10----|
/PART/2
DIE
         2         2         0
#---1----|----2----|----3----|----4----|----5----|----6----|----7----|----8----|----9----|---10----|
# SHELL elements of /PART/2/DIE:
#---1----|----2----|----3----|----4----|----5----|----6----|----7----|----8----|----9----|---10----|
/SHELL/2
         1         1         2        13        12                                                 0
         2         2         3        14        13                                                 0
         3         3         4        15        14                                                 0
         4         4         5        16        15                                                 0
         5         5         6        17        16                                                 0
         6         6         7        18        17                                                 0
         7         7         8        19        18                                                 0
         8         8         9        20        19                                                 0
         9         9        10        21        20                                                 0
        10        10        11        22        21                                                 0
        11        12        13        24        23                                                 0
        12        13        14        25        24                                                 0
        13        14        15        26        25                                                 0
        14        15        16        27        26                                                 0
        15        16        17        28        27                                                 0
        16        17        18        29        28                                                 0
        17        18        19        30        29                                                 0
        18        19        20        31        30                                                 0
        19        20        21        32        31                                                 0
        20        21        22        33        32                                                 0
# ... 150 like lines cut
#---1----|----2----|----3----|----4----|----5----|----6----|----7----|----8----|----9----|---10----|
/PART/3
BLANK_HOLDER
         3         3         0
#---1----|----2----|----3----|----4----|----5----|----6----|----7----|----8----|----9----|---10----|
# SHELL elements of /PART/3/BLANK_HOLDER:
#---1----|----2----|----3----|----4----|----5----|----6----|----7----|----8----|----9----|---10----|
/SHELL/3
       171       211       212       214       213                                                 0
       172       213       214       216       215                                                 0
       173       215       216       218       217                                                 0
       174       217       218       220       219                                                 0
       175       219       220       222       221                                                 0
       176       212       223       229       214                                                 0
       177       223       224       230       229                                                 0
       178       224       225       231       230                                                 0
       179       225       226       232       231                                                 0
       180       226       227       233       232                                                 0
       181       227       228       234       233                                                 0
       182       214       229       235       216                                                 0
       183       229       230       236       235                                                 0
       184       230       231       237       236                                                 0
       185       231       232       238       237                                                 0
       186       232       233       239       238                                                 0
       187       233       234       240       239                                                 0
       188       216       235       241       218                                                 0
       189       235       236       242       241                                                 0
       190       236       237       243       242                                                 0
# ... 45 like lines cut
#---1----|----2----|----3----|----4----|----5----|----6----|----7----|----8----|----9----|---10----|
/PART/4
PUNCH
         4         4         0
#---1----|----2----|----3----|----4----|----5----|----6----|----7----|----8----|----9----|---10----|
# SHELL elements of /PART/4/PUNCH:
#---1----|----2----|----3----|----4----|----5----|----6----|----7----|----8----|----9----|---10----|
/SHELL/4
       236       295       296       300       299                                                 0
       237       296       297       301       300                                                 0
       238       297       298       302       301                                                 0
       239       299       300       304       303                                                 0
       240       300       301       305       304                                                 0
       241       301       302       306       305                                                 0
       242       303       304       308       307                                                 0
       243       304       305       309       308                                                 0
       244       305       306       310       309                                                 0
       245       307       308       312       311                                                 0
       246       308       309       313       312                                                 0
       247       309       310       314       313                                                 0
       248       311       312       316       315                                                 0
       249       312       313       317       316                                                 0
       250       313       314       318       317                                                 0
       251       298       319       327       302                                                 0
       252       319       320       328       327                                                 0
       253       320       321       329       328                                                 0
       254       321       322       330       329                                                 0
       255       322       323       331       330                                                 0
# ... 85 like lines cut
#---1----|----2----|----3----|----4----|----5----|----6----|----7----|----8----|----9----|---10----|
#-  6. GEOMETRICAL SETS:
#---1----|----2----|----3----|----4----|----5----|----6----|----7----|----8----|----9----|---10----|
/PROP/SH_ORTH/1
QEPH
#   Ishell    Ismstr     Ish3n    Idrill
        24         0         0         0
#                 hm                  hf                  hr                  dm                  dn
                   0                   0                   0                   0                   0
#        N   Istrain               Thick              Ashear              Ithick     Iplas
         5         0           .74000001                   0                   1         1
#                 Vx                  Vy                  Vz                 Phi
                   1                   0                   0                   0
#---1----|----2----|----3----|----4----|----5----|----6----|----7----|----8----|----9----|---10----|
/PROP/SHELL/2
Part number 2
#   Ishell    Ismstr     Ish3n    Idrill
         0         0         0         0
#                 hm                  hf                  hr                  dm                  dn
                   0                   0                   0                   0                   0
#        N   Istrain               Thick              Ashear              Ithick     Iplas
         1         0                   1                   0                   0         0
#---1----|----2----|----3----|----4----|----5----|----6----|----7----|----8----|----9----|---10----|
/PROP/SHELL/3
Part number 3
#   Ishell    Ismstr     Ish3n    Idrill
         0         0         0         0
#                 hm                  hf                  hr                  dm                  dn
                   0                   0                   0                   0                   0
#        N   Istrain               Thick              Ashear              Ithick     Iplas
         1         0                   1                   0                   0         0
#---1----|----2----|----3----|----4----|----5----|----6----|----7----|----8----|----9----|---10----|
/PROP/SHELL/4
Part number 4
#   Ishell    Ismstr     Ish3n    Idrill
         0         0         0         0
#                 hm                  hf                  hr                  dm                  dn
                   0                   0                   0                   0                   0
#        N   Istrain               Thick              Ashear              Ithick     Iplas
         1         0                   1                   0                   0         0
#---1----|----2----|----3----|----4----|----5----|----6----|----7----|----8----|----9----|---10----|
#-  7. FUNCTIONS:
#---1----|----2----|----3----|----4----|----5----|----6----|----7----|----8----|----9----|---10----|
/FUNCT/1
function_1
#                  X                   Y
                   0               612.5                                                            
                 960               612.5                                                            
               960.1                   0                                                            
              100000                   0                                                            
#---1----|----2----|----3----|----4----|----5----|----6----|----7----|----8----|----9----|---10----|
/FUNCT/2
function_2
#                  X                   Y
                   0                   0                                                            
                  40              .00279                                                            
                  90                 .01                                                            
                 120                 .02                                                            
                 130                 .03                                                            
                 135                .039                                                            
                 140                 .05                                                            
               140.1                 .07                                                            
               140.5                .075                                                            
                 148                 .09                                                            
                 190                .098                                                            
                 300                  .1                                                            
                 710                  .1                                                            
                 760                .098                                                            
                 790                 .09                                                            
                 800                 .08                                                            
                 820                 .05                                                            
                 860                .022                                                            
                 895                 .01                                                            
                 960                   0                                                            
                1000                   0                                                            
                1200                 -.2                                                            
#---1----|----2----|----3----|----4----|----5----|----6----|----7----|----8----|----9----|---10----|
/FUNCT/3
sf
#                  X                   Y
                   0                   0                                                            
                1000                   0                                                            
                1200                  .2                                                            
#---1----|----2----|----3----|----4----|----5----|----6----|----7----|----8----|----9----|---10----|
/FUNCT/4
matrice
#                  X                   Y
                   0                   0                                                            
                1000                   0                                                            
                1200                 -.2                                                            
#---1----|----2----|----3----|----4----|----5----|----6----|----7----|----8----|----9----|---10----|
/FUNCT/5
materflan
#                  X                   Y
                   0            261.6038                                                            
                .002            270.2146                                                            
                .005            281.5329                                                            
                 .01             297.402                                                            
                 .02             322.248                                                            
                 .03             341.675                                                            
                 .04             357.797                                                            
                 .05            371.6716                                                            
                 .06             383.905                                                            
                 .07             394.883                                                            
                 .08            404.8652                                                            
                 .09             414.036                                                            
                  .1            422.5322                                                            
                 .11            430.4568                                                            
                 .12              437.89                                                            
                 .13            444.8983                                                            
                 .14              451.53                                                            
                 .15             457.832                                                            
                 .16             463.837                                                            
                 .17            469.5799                                                            
# ... 5 like lines cut
#---1----|----2----|----3----|----4----|----5----|----6----|----7----|----8----|----9----|---10----|
#-  8. CONCENTRATED LOADS:
#---1----|----2----|----3----|----4----|----5----|----6----|----7----|----8----|----9----|---10----|
/CLOAD/1
NU31HSF1D00_cloads_1
#funct_IDT       Dir   skew_ID sensor_ID  grnod_ID                       Ascalex             Fscaley
         1         Z         0         0         5                             0                  -1
#---1----|----2----|----3----|----4----|----5----|----6----|----7----|----8----|----9----|---10----|
#-  9. INTERFACES:
#---1----|----2----|----3----|----4----|----5----|----6----|----7----|----8----|----9----|---10----|
/INTER/TYPE7/1
NUM3HSF1D00_interface_1
#  Slav_id   Mast_id      Istf      Ithe      Igap                Ibag      Idel     Icurv      Iadm
         6         1         0         0         0                   0         0         0         0
#          Fscalegap             GAP_MAX             Fpenmax
                   0                   0                   0
#              Stmin               Stmax          %mesh_size               dtmin  Irem_gap
                   0                   0                   0                   0         0
#              Stfac                Fric              Gapmin              Tstart               Tstop
                   1          .128999993          .370000005                   0                   0
#      IBC                        Inacti                VisS                VisF              Bumult
       000                             0                   1                   1                   0
#    Ifric    Ifiltr               Xfreq     Iform   sens_ID
         0         0                   0         0         0
/GRNOD/PART/6
NU31HSF1D00_BLANK
         1
/SURF/PART/1
NUM3HS1D00_DIE
         2
#---1----|----2----|----3----|----4----|----5----|----6----|----7----|----8----|----9----|---10----|
/INTER/TYPE7/2
NUM3HSF1D00_interface_2
#  Slav_id   Mast_id      Istf      Ithe      Igap                Ibag      Idel     Icurv      Iadm
         6         2         0         0         0                   0         0         0         0
#          Fscalegap             GAP_MAX             Fpenmax
                   0                   0                   0
#              Stmin               Stmax          %mesh_size               dtmin  Irem_gap
                   0                   0                   0                   0         0
#              Stfac                Fric              Gapmin              Tstart               Tstop
                   1          .128999993          .370000005                   0                   0
#      IBC                        Inacti                VisS                VisF              Bumult
       000                             0                   1                   1                   0
#    Ifric    Ifiltr               Xfreq     Iform   sens_ID
         0         0                   0         0         0
/SURF/PART/2
NUM3HS1D00_HOLDER
         3
#---1----|----2----|----3----|----4----|----5----|----6----|----7----|----8----|----9----|---10----|
/INTER/TYPE7/3
NUM3HSF1D00_interface_3
#  Slav_id   Mast_id      Istf      Ithe      Igap                Ibag      Idel     Icurv      Iadm
         6         3         0         0         0                   0         0         0         0
#          Fscalegap             GAP_MAX             Fpenmax
                   0                   0                   0
#              Stmin               Stmax          %mesh_size               dtmin  Irem_gap
                   0                   0                   0                   0         0
#              Stfac                Fric              Gapmin              Tstart               Tstop
                   1          .128999993          .370000005                   0                   0
#      IBC                        Inacti                VisS                VisF              Bumult
       000                             0                   1                   1                   0
#    Ifric    Ifiltr               Xfreq     Iform   sens_ID
         0         0                   0         0         0
/SURF/PART/3
NUM3HS1D00_PUNCH
         4
#---1----|----2----|----3----|----4----|----5----|----6----|----7----|----8----|----9----|---10----|
#- 10. RIGID BODIES:
#---1----|----2----|----3----|----4----|----5----|----6----|----7----|----8----|----9----|---10----|
/RBODY/1
NUM3HS1D00_rbody_poinsson
#     RBID     ISENS     NSKEW    ISPHER                MASS   Gnod_id     IKREM      ICOG   Surf_id
      2549         0         0         0                   0         9         0         0         0
#                Jxx                 Jyy                 Jzz
                   0                   0                   0
#                Jxy                 Jyz                 Jxz
                   0                   0                   0
#Ioptoff
         0
/GRNOD/PART/9
NU31HSF1D00_PUNCH
         4
#---1----|----2----|----3----|----4----|----5----|----6----|----7----|----8----|----9----|---10----|
/RBODY/2
NUM3HS1D00_rbody_sf
#     RBID     ISENS     NSKEW    ISPHER                MASS   Gnod_id     IKREM      ICOG   Surf_id
      2550         0         0         0                   0        10         0         0         0
#                Jxx                 Jyy                 Jzz
                   0                   0                   0
#                Jxy                 Jyz                 Jxz
                   0                   0                   0
#Ioptoff
         0
/GRNOD/PART/10
NU31HSF1D00_HOLDER
         3
#---1----|----2----|----3----|----4----|----5----|----6----|----7----|----8----|----9----|---10----|
/RBODY/3
NUM3HS1D00_rbody_matrice
#     RBID     ISENS     NSKEW    ISPHER                MASS   Gnod_id     IKREM      ICOG   Surf_id
      2551         0         0         0                   0        11         0         0         0
#                Jxx                 Jyy                 Jzz
                   0                   0                   0
#                Jxy                 Jyz                 Jxz
                   0                   0                   0
#Ioptoff
         0
/GRNOD/PART/11
NU31HSF1D00_DIE
         2
#---1----|----2----|----3----|----4----|----5----|----6----|----7----|----8----|----9----|---10----|
#- 11. IMPOSED VELOCITIES:
#---1----|----2----|----3----|----4----|----5----|----6----|----7----|----8----|----9----|---10----|
/IMPVEL/1
NUM3HS1D00_fixvel_1
#funct_IDT       Dir   skew_ID sensor_ID  grnod_ID  frame_ID     Icoor
         2         Z         0         0        12         0         0
#           Ascale_x            Fscale_Y              Tstart               Tstop
                   0                  -1                   0               11000
#---1----|----2----|----3----|----4----|----5----|----6----|----7----|----8----|----9----|---10----|
/IMPVEL/2
matrice
#funct_IDT       Dir   skew_ID sensor_ID  grnod_ID  frame_ID     Icoor
         4         Z         0         0         3         0         0
#           Ascale_x            Fscale_Y              Tstart               Tstop
                   0                   1                   0               11000
#---1----|----2----|----3----|----4----|----5----|----6----|----7----|----8----|----9----|---10----|
/IMPVEL/3
sf
#funct_IDT       Dir   skew_ID sensor_ID  grnod_ID  frame_ID     Icoor
         3         Z         0         0         5         0         0
#           Ascale_x            Fscale_Y              Tstart               Tstop
                   0                   1               960.1               11000
#---1----|----2----|----3----|----4----|----5----|----6----|----7----|----8----|----9----|---10----|
#- 12. TIME HISTORIES:
#---1----|----2----|----3----|----4----|----5----|----6----|----7----|----8----|----9----|---10----|
/TH/NODE/1
NU31HSF1D00_th_nodes
#     var1      var2      var3      var4      var5      var6      var7      var8      var9     var10
DEF       
#    NODid     Iskew                                           NODname
      2549         0PUNCH                                                                           
      2550         0HOLDER                                                                          
      2551         0DIE                                                                             
#---1----|----2----|----3----|----4----|----5----|----6----|----7----|----8----|----9----|---10----|
/TH/RBODY/2
Rigid bodies
#     var1      var2      var3      var4      var5      var6      var7      var8      var9     var10
DEF       
#     Obj1      Obj2      Obj3      Obj4      Obj5      Obj6      Obj7      Obj8      Obj9     Obj10
         1         3         2
#---1----|----2----|----3----|----4----|----5----|----6----|----7----|----8----|----9----|---10----|
/TH/PART/3
Part selection
#     var1      var2      var3      var4      var5      var6      var7      var8      var9     var10
DEF       
#     Obj1      Obj2      Obj3      Obj4      Obj5      Obj6      Obj7      Obj8      Obj9     Obj10
         1         2         3         4
#---1----|----2----|----3----|----4----|----5----|----6----|----7----|----8----|----9----|---10----|
/END
#---1----|----2----|----3----|----4----|----5----|----6----|----7----|----8----|----9----|---10----|
